netcdf C2H6-em-Geo_01 {
dimensions:
	time = UNLIMITED ; // (1 currently)
	lat = 180 ;
	lon = 360 ;
variables:
	double time(time) ;
		time:standard_name = "time" ;
		time:long_name = "Time" ;
		time:axis = "T" ;
		time:units = "days since 1950-01-01 00:00:00" ;
		time:calendar = "standard" ;
	double lat(lat) ;
		lat:standard_name = "latitude" ;
		lat:long_name = "Latitude" ;
		lat:units = "degrees_north" ;
		lat:axis = "Y" ;
	double lon(lon) ;
		lon:standard_name = "longitude" ;
		lon:long_name = "Longitude" ;
		lon:units = "degrees_east" ;
		lon:axis = "X" ;
	double Geo_C2H6(lat, lon) ;
		Geo_C2H6:_FillValue = NaN ;
		Geo_C2H6:standard_name = "Geological_C2H6" ;
		Geo_C2H6:long_name = "Natural C2H6 emissions from geological sources" ;
		Geo_C2H6:units = "kg m-2 s-1" ;

// global attributes:
		:description = "File contains C2H6 natural geological emissions produced for use in     GEOS-Chem chemical transport model.C2H6 geological emission distribution is based on the CH4 geological     emissions grid from Etiope et al. 2019. Global emissions are scaled to 3 Tg yr-1, in accordance with     Dalsoren et al. 2018. File has no monthly or interannual variation, based on \'present-day\' estimate annual emissions." ;
		:date_created = "2021-05-11 11:17:25.245434" ;
		:created_by = "Matthew Rowlinson (matthew.rowlinson@york.ac.uk)" ;
		:grid = "1.0 x 1.0 degree latitude x longitude grid" ;
		string :references = "Dalsøren, S.B., Myhre, G., Hodnebrog,O. et al. Discrepancy between simulated and observed ethane and propane levels explained by underestimated fossil emissions. Nature Geosci 11, 178-184 (2018). https://doi.org/10.1038/s41561-018-0073-0 ; Etiope, Giuseppe & Ciotoli, Giancarlo & Schwietzke, Stefan & Schoell, Martin. (2019). Gridded maps of geological methane emissions and their isotopic signature. Earth System Science Data. 11. 1-22. 10.5194/essd-11-1-2019. " ;
data:

 time = 1262304000 ;

 lat = -89.5, -88.5, -87.5, -86.5, -85.5, -84.5, -83.5, -82.5, -81.5, -80.5, 
    -79.5, -78.5, -77.5, -76.5, -75.5, -74.5, -73.5, -72.5, -71.5, -70.5, 
    -69.5, -68.5, -67.5, -66.5, -65.5, -64.5, -63.5, -62.5, -61.5, -60.5, 
    -59.5, -58.5, -57.5, -56.5, -55.5, -54.5, -53.5, -52.5, -51.5, -50.5, 
    -49.5, -48.5, -47.5, -46.5, -45.5, -44.5, -43.5, -42.5, -41.5, -40.5, 
    -39.5, -38.5, -37.5, -36.5, -35.5, -34.5, -33.5, -32.5, -31.5, -30.5, 
    -29.5, -28.5, -27.5, -26.5, -25.5, -24.5, -23.5, -22.5, -21.5, -20.5, 
    -19.5, -18.5, -17.5, -16.5, -15.5, -14.5, -13.5, -12.5, -11.5, -10.5, 
    -9.5, -8.5, -7.5, -6.5, -5.5, -4.5, -3.5, -2.5, -1.5, -0.5, 0.5, 1.5, 
    2.5, 3.5, 4.5, 5.5, 6.5, 7.5, 8.5, 9.5, 10.5, 11.5, 12.5, 13.5, 14.5, 
    15.5, 16.5, 17.5, 18.5, 19.5, 20.5, 21.5, 22.5, 23.5, 24.5, 25.5, 26.5, 
    27.5, 28.5, 29.5, 30.5, 31.5, 32.5, 33.5, 34.5, 35.5, 36.5, 37.5, 38.5, 
    39.5, 40.5, 41.5, 42.5, 43.5, 44.5, 45.5, 46.5, 47.5, 48.5, 49.5, 50.5, 
    51.5, 52.5, 53.5, 54.5, 55.5, 56.5, 57.5, 58.5, 59.5, 60.5, 61.5, 62.5, 
    63.5, 64.5, 65.5, 66.5, 67.5, 68.5, 69.5, 70.5, 71.5, 72.5, 73.5, 74.5, 
    75.5, 76.5, 77.5, 78.5, 79.5, 80.5, 81.5, 82.5, 83.5, 84.5, 85.5, 86.5, 
    87.5, 88.5, 89.5 ;

 lon = -179.5, -178.5, -177.5, -176.5, -175.5, -174.5, -173.5, -172.5, 
    -171.5, -170.5, -169.5, -168.5, -167.5, -166.5, -165.5, -164.5, -163.5, 
    -162.5, -161.5, -160.5, -159.5, -158.5, -157.5, -156.5, -155.5, -154.5, 
    -153.5, -152.5, -151.5, -150.5, -149.5, -148.5, -147.5, -146.5, -145.5, 
    -144.5, -143.5, -142.5, -141.5, -140.5, -139.5, -138.5, -137.5, -136.5, 
    -135.5, -134.5, -133.5, -132.5, -131.5, -130.5, -129.5, -128.5, -127.5, 
    -126.5, -125.5, -124.5, -123.5, -122.5, -121.5, -120.5, -119.5, -118.5, 
    -117.5, -116.5, -115.5, -114.5, -113.5, -112.5, -111.5, -110.5, -109.5, 
    -108.5, -107.5, -106.5, -105.5, -104.5, -103.5, -102.5, -101.5, -100.5, 
    -99.5, -98.5, -97.5, -96.5, -95.5, -94.5, -93.5, -92.5, -91.5, -90.5, 
    -89.5, -88.5, -87.5, -86.5, -85.5, -84.5, -83.5, -82.5, -81.5, -80.5, 
    -79.5, -78.5, -77.5, -76.5, -75.5, -74.5, -73.5, -72.5, -71.5, -70.5, 
    -69.5, -68.5, -67.5, -66.5, -65.5, -64.5, -63.5, -62.5, -61.5, -60.5, 
    -59.5, -58.5, -57.5, -56.5, -55.5, -54.5, -53.5, -52.5, -51.5, -50.5, 
    -49.5, -48.5, -47.5, -46.5, -45.5, -44.5, -43.5, -42.5, -41.5, -40.5, 
    -39.5, -38.5, -37.5, -36.5, -35.5, -34.5, -33.5, -32.5, -31.5, -30.5, 
    -29.5, -28.5, -27.5, -26.5, -25.5, -24.5, -23.5, -22.5, -21.5, -20.5, 
    -19.5, -18.5, -17.5, -16.5, -15.5, -14.5, -13.5, -12.5, -11.5, -10.5, 
    -9.5, -8.5, -7.5, -6.5, -5.5, -4.5, -3.5, -2.5, -1.5, -0.5, 0.5, 1.5, 
    2.5, 3.5, 4.5, 5.5, 6.5, 7.5, 8.5, 9.5, 10.5, 11.5, 12.5, 13.5, 14.5, 
    15.5, 16.5, 17.5, 18.5, 19.5, 20.5, 21.5, 22.5, 23.5, 24.5, 25.5, 26.5, 
    27.5, 28.5, 29.5, 30.5, 31.5, 32.5, 33.5, 34.5, 35.5, 36.5, 37.5, 38.5, 
    39.5, 40.5, 41.5, 42.5, 43.5, 44.5, 45.5, 46.5, 47.5, 48.5, 49.5, 50.5, 
    51.5, 52.5, 53.5, 54.5, 55.5, 56.5, 57.5, 58.5, 59.5, 60.5, 61.5, 62.5, 
    63.5, 64.5, 65.5, 66.5, 67.5, 68.5, 69.5, 70.5, 71.5, 72.5, 73.5, 74.5, 
    75.5, 76.5, 77.5, 78.5, 79.5, 80.5, 81.5, 82.5, 83.5, 84.5, 85.5, 86.5, 
    87.5, 88.5, 89.5, 90.5, 91.5, 92.5, 93.5, 94.5, 95.5, 96.5, 97.5, 98.5, 
    99.5, 100.5, 101.5, 102.5, 103.5, 104.5, 105.5, 106.5, 107.5, 108.5, 
    109.5, 110.5, 111.5, 112.5, 113.5, 114.5, 115.5, 116.5, 117.5, 118.5, 
    119.5, 120.5, 121.5, 122.5, 123.5, 124.5, 125.5, 126.5, 127.5, 128.5, 
    129.5, 130.5, 131.5, 132.5, 133.5, 134.5, 135.5, 136.5, 137.5, 138.5, 
    139.5, 140.5, 141.5, 142.5, 143.5, 144.5, 145.5, 146.5, 147.5, 148.5, 
    149.5, 150.5, 151.5, 152.5, 153.5, 154.5, 155.5, 156.5, 157.5, 158.5, 
    159.5, 160.5, 161.5, 162.5, 163.5, 164.5, 165.5, 166.5, 167.5, 168.5, 
    169.5, 170.5, 171.5, 172.5, 173.5, 174.5, 175.5, 176.5, 177.5, 178.5, 
    179.5 ;
}
